powerfactory/powerfactory-converter/src/test/resources/Hvdc.dgs
$$General;ID(a:40);Descr(a:40);Val(a:40)
  1;Version;5.0


$$ElmLne;ID(a:40);loc_name(a:40);for_name(a:50);fold_id(p);typ_id(p);dline(r);fline(r);GPScoords:SIZEROW(i);GPScoords:SIZECOL(i);nlnum(i);inAir(i)
  2;lne_1_2_1;;9;42;52;1;0;0;1;0
  3;lne_1_3_1;;9;43;52;1;0;0;1;0
  4;DC-Line_pos;;9;44;50;1;0;0;1;0
  5;DC-Line_neg;;9;44;50;1;0;0;1;0

$$ElmVsc;ID(a:40);loc_name(a:40);for_name(a:50);fold_id(p)
  6;HVDC Converter 1;;9
  7;HVDC Converter 2;;9

$$ElmLod;ID(a:40);loc_name(a:40);for_name(a:50);fold_id(p);typ_id(p);mode_inp(a:3);slini(r);plini(r);qlini(r);coslini(r);pf_recap(i);scale0(r);i_scale(i);outserv(i);classif(a:20)
  8;lod_3_1;;9;45;PQ;55,9017;50;25;0,894427;0;1;0;0;


$$ElmNet;ID(a:40);loc_name(a:40);for_name(a:50);fold_id(p);frnom(r);pDiagram(p)
  9;1 aux_1;;;60;


$$ElmSym;ID(a:40);loc_name(a:40);for_name(a:50);fold_id(p);typ_id(p);cCategory(a);ngnum(i);i_mot(i);pgini(r);qgini(r);cosgini(r);usetp(r);pf_recap(i);q_min(r);q_max(r);outserv(i);av_mode(a);phtech(i)
  10;sym_1_1;;9;46;Others;1;0;61,13;0;1;1,06;0;0;0;0;constv;1


$$ElmTerm;ID(a:40);loc_name(a:40);for_name(a:50);fold_id(p);typ_id(p);systype(i);iUsage(i);uknom(r);unknom(r);iminus(i);outserv(i);GPSlat(r);GPSlon(r);vtarget(r)
  11;1 Bus 1-Slack;;9;;0;0;165;95,26279;0;0;0;0;1
  12;2 Bus 2;;9;;0;0;165;95,26279;0;0;0;0;1
  13;3 Bus 2-Load;;9;;0;0;165;95,26279;0;0;0;0;1
  14;4 HVDC Link_T_DC_pos1;;9;;0;0;320;320,0;0;0;0;0;1
  15;5 HVDC Link_T_DC_pos2;;9;;0;0;320;320,0;0;0;0;0;1
  16;6 HVDC Link_T_DC_neg1;;9;;0;0;320;320,0;0;0;0;0;1
  17;7 HVDC Link_T_DC_neg2;;9;;0;0;320;320,0;0;0;0;0;1


$$StaCubic;ID(a:40);loc_name(a:40);for_name(a:50);fold_id(p);obj_bus(i);obj_id(p);it2p1(i);it2p2(i);it2p3(i)
  18;lne_1_2_1;;11;0;2;0;1;2
  19;lne_1_3_1;;11;0;3;0;1;2
  20;sym_1_1;;11;0;10;0;1;2
  21;lne_1_2_1;;12;1;2;0;1;2
  22;HVDC Converter 1 AC Node;;12;0;6;0;1;2
  23;lne_1_3_1;;13;1;3;0;1;2
  24;lod_3_1;;13;0;8;0;1;2
  25;HVDC Converter 2 AC Node;;13;0;7;0;1;2
  26;HVDC Converter 1 DC Node-1;;14;1;6;0;1;2
  27;HVDC Converter 1 DC Node-2;;16;2;6;0;1;2
  28;HVDC Converter 2 DC Node-1;;15;1;7;0;1;2
  29;HVDC Converter 2 DC Node-2;;17;2;7;0;1;2
  30;HVDC DC-Line_pos DC Node-1;;14;0;4;0;1;2
  31;HVDC DC-Line_pos DC Node-2;;15;1;4;0;1;2
  32;HVDC Dc-Line_neg DC Node-1;;16;0;5;0;1;2
  33;HVDC Dc-Line neg DC Node-2;;17;1;5;0;1;2

$$StaSwitch;ID(a:40);loc_name(a:40);for_name(a:50);fold_id(p);on_off(i);typ_id(p);aUsage(a)
  34;Switch;;18;1;;cbk
  35;Switch;;19;1;;cbk
  36;Switch;;20;1;;cbk
  37;Switch;;21;1;;cbk
  38;HVDC AC Converter 1 Switch;;22;1;;cbk
  39;Switch;;23;1;;cbk
  40;Switch;;24;1;;cbk
  41;HVDC AC Converter 2 Switch;;25;1;;cbk


$$TypLne;ID(a:40);loc_name(a:40);for_name(a:50);fold_id(p);uline(r);sline(r);InomAir(r);cohl_(i);rline(r);xline(r);rline0(r);xline0(r);Ithr(r);tmax(r);rtemp(r);systp(i);nlnph(i);nneutral(i);frnom(r);mlei(a:2);bline(r);bline0(r)
  42;tlne_1_2_1;;9;165;17,49546;1;0;0,101465;0,309789;999999;999999;0;80;80;0;3;0;60;Cu;24,44586;0
  43;tlne_1_3_1;;9;165;17,49546;1;0;0,101465;0,309789;999999;999999;0;80;80;0;3;0;60;Cu;24,44586;0
  44;DC Cable Type 320kV;;9;320;17,49546;1;0;0,101465;0,309789;999999;999999;0;80;80;0;3;0;60;Cu;24,44586;0


$$TypLod;ID(a:40);loc_name(a:40);for_name(a:50);fold_id(p);systp(i);phtech(i);aP(r);bP(r);kpu0(r);kpu1(r);kpu(r);aQ(r);bQ(r);kqu0(r);kqu1(r);kqu(r)
  45;lodtyp_pq;;9;0;0;1;0;0;1;2;1;0;0;1;2


$$TypSym;ID(a:40);loc_name(a:40);for_name(a:50);fold_id(p);sgn(r);ugn(r);cosn(r);xd(r);xq(r);xdsss(r);rstr(r);xdsat(r);satur(i);nphase(i);nslty(i);x0sy(r);r0sy(r);x2sy(r);r2sy(r);iopt_data(i);xds(r);xqs(r);xl(r);xdss(r);xqss(r);xrlq(r);tds(r);tqs(r);tdss(r);tqss(r)
  46;tsym_1_1;;9;615;165;1;2;2;1;0;1,2;0;3;2;1;0;1;0;1;0,3;0,3;0,1;1;1;0;1;0;0,05;0,05

